EPRI_Ckt7_DER_Project/02_Base_Allocated/ckt7_EXP_VOLTAGES.CSV
Bus, BasekV, Node1, Magnitude1, Angle1, pu1, Node2, Magnitude2, Angle2, pu2, Node3, Magnitude3, Angle3, pu3
"SOURCEBUS", 115, 1,    64356.5,   -9.1,   0.96929, 2,    64365.7, -129.1,   0.96943, 3,    64367.7,  110.9,   0.96946
"CKT7", 12.47, 1,    6969.61,  -39.3,   0.96806, 2,    6969.44, -159.3,   0.96804, 3,    6970.64,   80.7,    0.9682
"318405", 12.47, 1,    6969.61,  -39.3,   0.96806, 2,    6969.44, -159.3,   0.96804, 3,    6970.64,   80.7,    0.9682
"318412", 12.47, 1,    6969.61,  -39.3,   0.96806, 2,    6969.44, -159.3,   0.96804, 3,    6970.64,   80.7,    0.9682
"318414", 12.47, 1,    6969.61,  -39.3,   0.96806, 2,    6969.44, -159.3,   0.96804, 3,    6970.64,   80.7,    0.9682
"157345", 12.47, 1,    6961.18,  -39.5,   0.96689, 2,    6965.51, -159.4,   0.96749, 3,     6962.8,   80.6,   0.96711
"157346", 12.47, 1,    6961.19,  -39.5,   0.96689, 2,    6965.51, -159.4,   0.96749, 3,    6962.81,   80.6,   0.96712
"165442", 12.47, 1,    6961.02,  -39.5,   0.96687, 2,    6965.42, -159.4,   0.96748, 3,    6962.58,   80.6,   0.96708
"298160", 12.47, 1,    6953.52,  -39.7,   0.96583, 2,    6960.86, -159.6,   0.96685, 3,    6952.72,   80.4,   0.96572
"165448", 12.47, 1,    6947.85,  -39.7,   0.96504, 2,    6956.98, -159.6,   0.96631, 3,    6947.15,   80.3,   0.96494
"275354", 12.47, 1,    6937.37,  -40.0,   0.96358, 2,    6950.86, -159.9,   0.96546, 3,    6933.03,   80.1,   0.96298
"165449", 12.47, 1,    6936.57,  -40.0,   0.96347, 2,    6950.41, -159.9,   0.96539, 3,    6931.93,   80.1,   0.96283
"165450", 12.47, 1,    6936.56,  -40.0,   0.96347, 2,    6950.41, -159.9,   0.96539, 3,    6931.94,   80.1,   0.96283
"165453", 12.47, 1,    6932.94,  -40.1,   0.96297, 2,    6947.75, -159.9,   0.96502, 3,    6927.34,   80.0,   0.96219
"165454", 12.47, 1,    6932.36,  -40.1,   0.96289, 2,    6947.16, -159.9,   0.96494, 3,    6926.75,   80.0,   0.96211
"165451", 12.47, 1,    6933.84,  -40.1,   0.96309, 2,    6948.85, -159.9,   0.96518, 3,    6928.19,   80.0,   0.96231
"238402", 12.47, 1,    6931.99,  -40.1,   0.96284, 2,    6946.79, -159.9,   0.96489, 3,    6926.38,   80.0,   0.96206
"165455", 12.47, 1,    6929.48,  -40.1,   0.96249, 2,    6944.28, -159.9,   0.96454, 3,    6923.87,   80.0,   0.96171
"165456", 12.47, 1,     6929.5,  -40.1,   0.96249, 2,     6944.3, -159.9,   0.96454, 3,    6923.89,   80.0,   0.96171
"165452", 12.47, 1,    6930.47,  -40.1,   0.96262, 2,    6945.27, -159.9,   0.96468, 3,    6924.86,   80.0,   0.96185
"283563", 12.47, 1,    6929.68,  -40.1,   0.96252, 2,    6944.48, -159.9,   0.96457, 3,    6924.07,   80.0,   0.96174
"165457", 12.47, 1,    6929.39,  -40.1,   0.96247, 2,    6944.19, -159.9,   0.96453, 3,    6923.78,   80.0,    0.9617
"165458", 12.47, 1,    6932.97,  -40.1,   0.96297, 2,    6947.99, -159.9,   0.96506, 3,    6927.32,   80.0,   0.96219
"165459", 12.47, 1,    6933.01,  -40.1,   0.96298, 2,    6948.03, -159.9,   0.96506, 3,    6927.37,   80.0,   0.96219
"165460", 12.47, 1,    6932.77,  -40.1,   0.96294, 2,    6947.78, -159.9,   0.96503, 3,    6927.12,   80.0,   0.96216
"165461", 12.47, 1,    6929.87,  -40.1,   0.96254, 2,    6944.87, -159.9,   0.96463, 3,    6924.22,   80.0,   0.96176
"165463", 12.47, 1,    6928.96,  -40.1,   0.96242, 2,    6943.97, -159.9,    0.9645, 3,    6923.31,   80.0,   0.96163
"165462", 12.47, 1,    6928.27,  -40.1,   0.96232, 2,    6943.28, -159.9,    0.9644, 3,    6922.62,   80.0,   0.96153
"165465", 12.47, 1,    6928.89,  -40.1,   0.96241, 2,     6943.9, -159.9,   0.96449, 3,    6923.24,   80.0,   0.96162
"165466", 12.47, 1,    6929.86,  -40.1,   0.96254, 2,    6944.87, -159.9,   0.96462, 3,    6924.21,   80.0,   0.96175
"165467", 12.47, 1,    6921.17,  -40.2,   0.96133, 2,       6939, -160.0,   0.96381, 3,    6914.78,   80.0,   0.96045
"165468", 12.47, 1,    6920.56,  -40.2,   0.96125, 2,    6938.79, -160.0,   0.96378, 3,    6913.79,   79.9,   0.96031
"165475", 12.47, 1,    6917.84,  -40.2,   0.96087, 2,    6936.41, -160.0,   0.96345, 3,    6910.71,   79.9,   0.95988
"165476", 12.47, 1,    6917.81,  -40.2,   0.96087, 2,    6936.38, -160.0,   0.96345, 3,    6910.68,   79.9,   0.95987
"165477", 12.47, 1,    6917.46,  -40.2,   0.96082, 2,    6936.03, -160.0,    0.9634, 3,    6910.32,   79.9,   0.95983
"273626", 12.47, 1,     6918.4,  -40.2,   0.96095, 2,    6936.98, -160.0,   0.96353, 3,    6911.27,   79.9,   0.95996
"165469", 12.47, 1,    6919.95,  -40.2,   0.96116, 2,    6938.59, -160.0,   0.96375, 3,     6912.8,   79.9,   0.96017
"165480", 12.47, 1,    6919.21,  -40.3,   0.96106, 2,    6938.47, -160.0,   0.96374, 3,    6911.47,   79.9,   0.95998
"165478", 12.47, 1,     6918.7,  -40.3,   0.96099, 2,    6938.39, -160.0,   0.96372, 3,    6910.54,   79.9,   0.95986
"165479", 12.47, 1,    6918.19,  -40.3,   0.96092, 2,    6938.34, -160.1,   0.96372, 3,     6909.6,   79.8,   0.95973
"165484", 12.47, 1,    6918.41,  -40.3,   0.96095, 2,     6938.1, -160.0,   0.96368, 3,    6910.25,   79.9,   0.95982
"165483", 12.47, 1,    6918.45,  -40.3,   0.96096, 2,    6938.15, -160.0,   0.96369, 3,     6910.3,   79.9,   0.95982
"261839", 12.47, 1,    6918.47,  -40.3,   0.96096, 2,    6938.17, -160.0,   0.96369, 3,    6910.32,   79.9,   0.95983
"261838", 12.47, 1,    6918.49,  -40.3,   0.96096, 2,    6938.18, -160.0,    0.9637, 3,    6910.33,   79.9,   0.95983
"165486", 12.47, 1,    6918.06,  -40.3,    0.9609, 2,    6938.36, -160.1,   0.96372, 3,    6909.58,   79.8,   0.95972
"165485", 12.47, 1,    6918.01,  -40.3,   0.96089, 2,    6938.37, -160.1,   0.96372, 3,    6909.58,   79.8,   0.95972
"165487", 12.47, 1,    6917.49,  -40.3,   0.96082, 2,    6938.26, -160.1,   0.96371, 3,    6908.24,   79.8,   0.95954
"165488", 12.47, 1,    6916.79,  -40.3,   0.96072, 0, 0, 0, 0, 0, 0, 0, 0
"165489", 12.47, 1,    6916.82,  -40.3,   0.96073, 0, 0, 0, 0, 0, 0, 0, 0
"165491", 12.47, 1,    6916.39,  -40.3,   0.96067, 0, 0, 0, 0, 0, 0, 0, 0
"165490", 12.47, 1,    6915.98,  -40.3,   0.96061, 0, 0, 0, 0, 0, 0, 0, 0
"165494", 12.47, 1,    6915.56,  -40.3,   0.96055, 0, 0, 0, 0, 0, 0, 0, 0
"165492", 12.47, 1,    6915.47,  -40.3,   0.96054, 0, 0, 0, 0, 0, 0, 0, 0
"165493", 12.47, 1,    6915.24,  -40.3,   0.96051, 0, 0, 0, 0, 0, 0, 0, 0
"283952", 12.47, 1,       6917,  -40.4,   0.96075, 2,    6937.98, -160.1,   0.96367, 3,    6906.77,   79.8,   0.95933
"165500", 12.47, 1,    6916.19,  -40.4,   0.96064, 2,     6937.6, -160.2,   0.96361, 3,    6903.98,   79.7,   0.95894
"165501", 12.47, 1,    6916.18,  -40.4,   0.96064, 2,    6937.59, -160.2,   0.96361, 3,    6903.97,   79.7,   0.95894
"165495", 12.47, 1,    6916.23,  -40.4,   0.96065, 2,    6937.63, -160.2,   0.96362, 3,    6904.02,   79.7,   0.95895
"165503", 12.47, 1,    6916.07,  -40.4,   0.96062, 2,    6937.48, -160.2,    0.9636, 3,    6903.86,   79.7,   0.95893
"165504", 12.47, 1,    6862.39,  -40.8,   0.95317, 2,    6891.81, -160.4,   0.95726, 3,    6839.89,   79.4,   0.95004
"181883", 12.47, 1,    6856.12,  -41.0,    0.9523, 2,    6885.85, -160.6,   0.95643, 3,    6832.35,   79.2,     0.949
"158676", 12.47, 1,    6856.12,  -41.0,    0.9523, 2,    6885.85, -160.6,   0.95643, 3,    6832.35,   79.2,     0.949
"181889", 12.47, 1,    6853.42,  -41.0,   0.95192, 2,     6882.9, -160.6,   0.95602, 3,    6830.07,   79.2,   0.94868
"181890", 12.47, 1,     6853.4,  -41.0,   0.95192, 2,    6882.88, -160.6,   0.95601, 3,    6830.05,   79.2,   0.94868
"181891", 12.47, 1,    6850.96,  -41.0,   0.95158, 2,     6880.2, -160.7,   0.95564, 3,    6828.15,   79.2,   0.94841
"181892", 12.47, 1,    6850.91,  -41.0,   0.95157, 2,    6880.15, -160.7,   0.95563, 3,    6828.12,   79.2,   0.94841
"181884", 12.47, 1,    6853.96,  -41.0,     0.952, 2,    6883.49, -160.6,    0.9561, 3,    6830.53,   79.2,   0.94874
"181886", 12.47, 1,    6853.46,  -41.0,   0.95193, 2,    6882.93, -160.6,   0.95602, 3,    6830.11,   79.2,   0.94868
"181888", 12.47, 1,    6852.15,  -41.0,   0.95175, 2,    6881.49, -160.6,   0.95582, 3,    6829.06,   79.2,   0.94854
"181885", 12.47, 1,    6851.31,  -41.0,   0.95163, 2,    6880.55, -160.7,   0.95569, 3,    6828.42,   79.2,   0.94845
"181887", 12.47, 1,     6851.2,  -41.0,   0.95161, 2,    6880.44, -160.7,   0.95568, 3,    6828.33,   79.2,   0.94844
"181893", 12.47, 1,    6853.38,  -41.0,   0.95192, 2,    6882.86, -160.6,   0.95601, 3,    6830.03,   79.2,   0.94867
"181894", 12.47, 1,    6850.85,  -41.0,   0.95157, 2,     6880.1, -160.7,   0.95563, 3,    6827.99,   79.2,   0.94839
"181895", 12.47, 1,    6850.85,  -41.0,   0.95157, 2,     6880.1, -160.7,   0.95563, 3,    6827.99,   79.2,   0.94839
"181896", 12.47, 1,    6850.85,  -41.0,   0.95157, 2,     6880.1, -160.7,   0.95563, 3,    6827.99,   79.2,   0.94839
"181897", 12.47, 1,    6850.85,  -41.0,   0.95157, 2,     6880.1, -160.7,   0.95563, 3,    6827.98,   79.2,   0.94839
"181898", 12.47, 1,    6849.91,  -41.0,   0.95143, 0, 0, 0, 0, 0, 0, 0, 0
"181899", 12.47, 1,    6849.19,  -41.0,   0.95134, 0, 0, 0, 0, 0, 0, 0, 0
"181900", 12.47, 1,    6849.01,  -41.0,   0.95131, 0, 0, 0, 0, 0, 0, 0, 0
"181901", 12.47, 1,    6848.83,  -41.0,   0.95129, 0, 0, 0, 0, 0, 0, 0, 0
"181902", 12.47, 1,    6848.65,  -41.0,   0.95126, 0, 0, 0, 0, 0, 0, 0, 0
"181908", 12.47, 3,    6827.83,   79.2,   0.94837, 0, 0, 0, 0, 0, 0, 0, 0
"181903", 12.47, 3,    6827.82,   79.2,   0.94837, 0, 0, 0, 0, 0, 0, 0, 0
"181904", 12.47, 3,    6827.77,   79.2,   0.94836, 0, 0, 0, 0, 0, 0, 0, 0
"181905", 12.47, 3,    6827.54,   79.2,   0.94833, 0, 0, 0, 0, 0, 0, 0, 0
"181909", 12.47, 3,    6827.46,   79.2,   0.94832, 0, 0, 0, 0, 0, 0, 0, 0
"181907", 12.47, 3,    6827.44,   79.2,   0.94831, 0, 0, 0, 0, 0, 0, 0, 0
"181906", 12.47, 3,    6827.43,   79.2,   0.94831, 0, 0, 0, 0, 0, 0, 0, 0
"181910", 12.47, 2,    6877.67, -160.6,   0.95529, 0, 0, 0, 0, 0, 0, 0, 0
"181911", 12.47, 2,    6877.23, -160.6,   0.95523, 0, 0, 0, 0, 0, 0, 0, 0
"181916", 12.47, 2,    6876.73, -160.6,   0.95516, 0, 0, 0, 0, 0, 0, 0, 0
"181915", 12.47, 2,    6876.64, -160.6,   0.95515, 0, 0, 0, 0, 0, 0, 0, 0
"181912", 12.47, 2,    6876.59, -160.6,   0.95514, 0, 0, 0, 0, 0, 0, 0, 0
"181913", 12.47, 2,    6876.46, -160.6,   0.95512, 0, 0, 0, 0, 0, 0, 0, 0
"181914", 12.47, 2,    6876.46, -160.6,   0.95512, 0, 0, 0, 0, 0, 0, 0, 0
"181917", 12.47, 1,    6859.38,  -41.0,   0.95275, 2,    6889.26, -160.6,    0.9569, 3,    6834.46,   79.2,   0.94929
"181920", 12.47, 1,    6859.38,  -41.0,   0.95275, 2,    6889.26, -160.6,    0.9569, 3,    6834.46,   79.2,   0.94929
"181918", 12.47, 1,     6859.5,  -41.0,   0.95277, 2,    6889.39, -160.6,   0.95692, 3,    6834.54,   79.2,    0.9493
"181919", 12.47, 1,    6859.79,  -41.0,   0.95281, 2,    6889.74, -160.6,   0.95697, 3,    6834.74,   79.2,   0.94933
"152566", 12.47, 1,    6859.79,  -41.0,   0.95281, 2,    6889.74, -160.6,   0.95697, 3,    6834.74,   79.2,   0.94933
"181925", 12.47, 1,    6859.46,  -41.0,   0.95276, 2,    6889.26, -160.6,    0.9569, 3,    6834.49,   79.2,   0.94929
"181926", 12.47, 1,    6859.55,  -41.0,   0.95277, 2,    6889.34, -160.6,   0.95691, 3,    6834.58,   79.2,   0.94931
"181927", 12.47, 1,    6859.53,  -41.0,   0.95277, 2,    6889.34, -160.6,   0.95691, 3,    6834.57,   79.2,    0.9493
"181928", 12.47, 1,    6859.27,  -41.0,   0.95273, 2,    6889.07, -160.6,   0.95687, 3,     6834.3,   79.2,   0.94927
"181924", 12.47, 1,    6859.79,  -41.0,   0.95281, 2,    6889.74, -160.6,   0.95697, 3,    6834.74,   79.2,   0.94933
"181933", 12.47, 3,    6836.42,   79.3,   0.94956, 0, 0, 0, 0, 0, 0, 0, 0
"181934", 12.47, 3,    6836.37,   79.3,   0.94955, 0, 0, 0, 0, 0, 0, 0, 0
"255317", 12.47, 1,    6860.61,  -41.0,   0.95292, 2,    6890.68, -160.6,    0.9571, 3,    6835.46,   79.2,   0.94943
"181929", 12.47, 1,    6861.32,  -40.9,   0.95302, 2,    6891.55, -160.6,   0.95722, 3,    6835.96,   79.3,    0.9495
"181936", 12.47, 1,     6861.9,  -40.9,    0.9531, 2,    6892.22, -160.5,   0.95731, 3,    6836.41,   79.3,   0.94956
"181932", 12.47, 1,    6862.34,  -40.9,   0.95316, 2,    6892.72, -160.5,   0.95738, 3,    6836.76,   79.3,   0.94961
"181939", 12.47, 1,     6859.1,  -41.0,   0.95271, 2,    6888.94, -160.6,   0.95686, 3,    6834.16,   79.2,   0.94925
"181940", 12.47, 1,     6859.1,  -41.0,   0.95271, 2,    6888.94, -160.6,   0.95686, 3,    6834.16,   79.2,   0.94925
"181937", 12.47, 1,    6859.45,  -41.0,   0.95276, 2,    6889.29, -160.6,   0.95691, 3,    6834.51,   79.2,    0.9493
"181938", 12.47, 1,     6859.1,  -41.0,   0.95271, 2,    6888.94, -160.6,   0.95686, 3,    6834.16,   79.2,   0.94925
"181941", 12.47, 1,     6859.1,  -41.0,   0.95271, 2,    6888.94, -160.6,   0.95686, 3,    6834.16,   79.2,   0.94925
"181943", 12.47, 3,    6837.41,   79.3,    0.9497, 0, 0, 0, 0, 0, 0, 0, 0
"181944", 12.47, 3,    6837.37,   79.3,   0.94969, 0, 0, 0, 0, 0, 0, 0, 0
"181945", 12.47, 1,    6862.81,  -40.9,   0.95323, 2,    6893.24, -160.5,   0.95745, 3,    6837.55,   79.3,   0.94972
"181942", 12.47, 1,    6862.51,  -40.9,   0.95319, 2,    6892.97, -160.5,   0.95742, 3,    6837.59,   79.3,   0.94972
"236964", 12.47, 1,    6862.21,  -40.9,   0.95314, 0, 0, 0, 0, 0, 0, 0, 0
"181946", 12.47, 1,    6861.52,  -40.9,   0.95305, 0, 0, 0, 0, 0, 0, 0, 0
"181953", 12.47, 1,    6861.38,  -40.9,   0.95303, 0, 0, 0, 0, 0, 0, 0, 0
"181947", 12.47, 1,     6861.4,  -40.9,   0.95303, 0, 0, 0, 0, 0, 0, 0, 0
"181950", 12.47, 1,    6861.36,  -40.9,   0.95303, 0, 0, 0, 0, 0, 0, 0, 0
"181948", 12.47, 1,    6861.24,  -40.9,   0.95301, 0, 0, 0, 0, 0, 0, 0, 0
"181951", 12.47, 1,    6861.22,  -40.9,   0.95301, 0, 0, 0, 0, 0, 0, 0, 0
"181952", 12.47, 1,    6861.21,  -40.9,     0.953, 0, 0, 0, 0, 0, 0, 0, 0
"181954", 12.47, 1,    6861.11,  -40.9,   0.95299, 0, 0, 0, 0, 0, 0, 0, 0
"181949", 12.47, 1,    6861.13,  -40.9,   0.95299, 0, 0, 0, 0, 0, 0, 0, 0
"181955", 12.47, 1,    6861.09,  -40.9,   0.95299, 0, 0, 0, 0, 0, 0, 0, 0
"181956", 12.47, 1,     6861.3,  -40.9,   0.95302, 0, 0, 0, 0, 0, 0, 0, 0
"236966", 12.47, 1,    6862.23,  -40.9,   0.95315, 0, 0, 0, 0, 0, 0, 0, 0
"181957", 12.47, 3,    6836.13,   79.3,   0.94952, 0, 0, 0, 0, 0, 0, 0, 0
"181958", 12.47, 3,    6835.66,   79.3,   0.94946, 0, 0, 0, 0, 0, 0, 0, 0
"181967", 12.47, 3,     6834.5,   79.3,   0.94929, 0, 0, 0, 0, 0, 0, 0, 0
"181966", 12.47, 3,    6834.12,   79.3,   0.94924, 0, 0, 0, 0, 0, 0, 0, 0
"181965", 12.47, 3,    6833.77,   79.3,   0.94919, 0, 0, 0, 0, 0, 0, 0, 0
"181959", 12.47, 3,    6833.65,   79.3,   0.94918, 0, 0, 0, 0, 0, 0, 0, 0
"181963", 12.47, 3,    6835.28,   79.3,    0.9494, 0, 0, 0, 0, 0, 0, 0, 0
"181964", 12.47, 3,    6835.14,   79.3,   0.94938, 0, 0, 0, 0, 0, 0, 0, 0
"181960", 12.47, 3,    6835.09,   79.3,   0.94938, 0, 0, 0, 0, 0, 0, 0, 0
"181961", 12.47, 3,    6835.05,   79.3,   0.94937, 0, 0, 0, 0, 0, 0, 0, 0
"181962", 12.47, 3,    6834.97,   79.3,   0.94936, 0, 0, 0, 0, 0, 0, 0, 0
"181969", 12.47, 1,    6862.19,  -40.8,   0.95314, 2,    6892.49, -160.5,   0.95735, 3,    6837.88,   79.3,   0.94976
"181970", 12.47, 1,    6862.25,  -40.8,   0.95315, 2,    6892.53, -160.5,   0.95735, 3,    6837.92,   79.3,   0.94977
"181971", 12.47, 1,    6861.31,  -40.8,   0.95302, 2,     6891.7, -160.5,   0.95724, 3,    6837.14,   79.3,   0.94966
"181972", 12.47, 1,    6861.31,  -40.8,   0.95302, 2,     6891.7, -160.5,   0.95724, 3,    6837.14,   79.3,   0.94966
"181973", 12.47, 1,    6859.47,  -40.8,   0.95276, 2,    6889.86, -160.5,   0.95698, 3,    6835.45,   79.3,   0.94943
"181974", 12.47, 1,    6859.43,  -40.8,   0.95276, 2,    6889.82, -160.5,   0.95698, 3,    6835.41,   79.3,   0.94942
"181968", 12.47, 1,     6862.3,  -40.8,   0.95316, 2,    6892.57, -160.5,   0.95736, 3,    6837.96,   79.3,   0.94978
"181979", 12.47, 1,    6861.32,  -40.8,   0.95302, 2,    6891.71, -160.5,   0.95724, 3,    6837.15,   79.3,   0.94966
"181976", 12.47, 1,    6860.59,  -40.8,   0.95292, 2,    6891.06, -160.5,   0.95715, 3,    6836.54,   79.3,   0.94958
"181977", 12.47, 1,    6859.71,  -40.8,    0.9528, 2,     6890.1, -160.5,   0.95702, 3,    6835.69,   79.3,   0.94946
"181978", 12.47, 1,    6859.71,  -40.8,    0.9528, 2,    6890.08, -160.5,   0.95701, 3,     6835.7,   79.3,   0.94946
"181975", 12.47, 2,       6890, -160.5,     0.957, 0, 0, 0, 0, 0, 0, 0, 0
"181982", 12.47, 2,       6890, -160.5,     0.957, 0, 0, 0, 0, 0, 0, 0, 0
"181980", 12.47, 1,    6859.04,  -40.8,    0.9527, 2,    6889.43, -160.5,   0.95692, 3,    6835.01,   79.3,   0.94937
"181981", 12.47, 1,     6861.3,  -40.8,   0.95302, 2,    6891.69, -160.5,   0.95724, 3,    6837.13,   79.3,   0.94966
"261881", 12.47, 1,    6862.22,  -40.8,   0.95314, 2,    6891.59, -160.4,   0.95722, 3,    6839.52,   79.4,   0.94999
"181987", 12.47, 1,    6845.39,  -41.0,   0.95081, 2,    6875.15, -160.6,   0.95494, 3,    6820.44,   79.2,   0.94734
"181988", 12.47, 1,    6845.25,  -41.0,   0.95079, 2,    6875.01, -160.6,   0.95492, 3,     6820.3,   79.2,   0.94732
"181985", 12.47, 1,     6856.3,  -41.0,   0.95232, 2,    6886.09, -160.6,   0.95646, 3,    6831.33,   79.2,   0.94885
"181986", 12.47, 1,    6855.36,  -41.0,   0.95219, 2,    6885.14, -160.6,   0.95633, 3,    6830.39,   79.2,   0.94872
"181989", 12.47, 1,    6844.94,  -41.0,   0.95074, 2,    6874.69, -160.6,   0.95488, 3,    6819.98,   79.2,   0.94728
"181992", 12.47, 1,    6844.57,  -41.0,   0.95069, 2,    6874.33, -160.6,   0.95483, 3,    6819.61,   79.2,   0.94723
"181990", 12.47, 1,    6844.31,  -41.0,   0.95066, 2,    6874.07, -160.6,   0.95479, 3,    6819.36,   79.2,   0.94719
"181991", 12.47, 1,       6841,  -41.0,    0.9502, 2,    6870.74, -160.6,   0.95433, 3,    6816.05,   79.2,   0.94673
"181993", 12.47, 1,    6861.32,  -41.0,   0.95302, 2,    6890.74, -160.6,   0.95711, 3,    6836.24,   79.2,   0.94954
"181994", 12.47, 1,     6859.9,  -41.0,   0.95282, 2,    6888.49, -160.7,   0.95679, 3,    6834.58,   79.2,    0.9493
"181995", 12.47, 1,    6859.43,  -41.0,   0.95276, 2,    6887.75, -160.7,   0.95669, 3,    6834.03,   79.2,   0.94923
"181996", 12.47, 1,    6859.01,  -41.0,    0.9527, 2,    6887.07, -160.7,    0.9566, 3,    6833.53,   79.2,   0.94916
"181997", 12.47, 1,    6858.59,  -41.0,   0.95264, 2,    6886.42, -160.7,   0.95651, 3,    6833.04,   79.1,   0.94909
"181998", 12.47, 1,    6859.01,  -41.0,    0.9527, 2,    6887.07, -160.7,    0.9566, 3,    6833.53,   79.2,   0.94916
"181999", 12.47, 1,    6859.01,  -41.0,    0.9527, 2,    6887.07, -160.7,    0.9566, 3,    6833.53,   79.2,   0.94916
"182000", 12.47, 1,    6858.59,  -41.0,   0.95264, 2,    6886.42, -160.7,   0.95651, 3,    6833.04,   79.1,   0.94909
"182001", 12.47, 1,    6858.59,  -41.0,   0.95264, 2,    6886.42, -160.7,   0.95651, 3,    6833.04,   79.1,   0.94909
"182002", 12.47, 1,    6858.59,  -41.0,   0.95264, 2,    6886.42, -160.7,   0.95651, 3,    6833.04,   79.1,   0.94909
"182003", 12.47, 1,    6859.01,  -41.0,    0.9527, 2,    6887.07, -160.7,    0.9566, 3,    6833.53,   79.2,   0.94916
"182004", 12.47, 1,    6858.32,  -41.0,    0.9526, 2,    6885.99, -160.7,   0.95645, 3,    6832.73,   79.1,   0.94905
"182005", 12.47, 1,    6858.29,  -41.0,    0.9526, 2,    6885.96, -160.7,   0.95644, 3,    6832.69,   79.1,   0.94904
"182006", 12.47, 1,    6858.27,  -41.0,    0.9526, 2,    6885.93, -160.7,   0.95644, 3,    6832.68,   79.1,   0.94904
"210023", 12.47, 1,    6858.25,  -41.0,   0.95259, 2,    6885.91, -160.7,   0.95643, 3,    6832.65,   79.1,   0.94904
"182012", 12.47, 1,     6856.8,  -41.0,   0.95239, 2,    6883.77, -160.7,   0.95614, 3,    6830.88,   79.1,   0.94879
"182013", 12.47, 1,     6856.8,  -41.0,   0.95239, 2,    6883.77, -160.7,   0.95614, 3,    6830.88,   79.1,   0.94879
"182015", 12.47, 1,    6855.98,  -41.0,   0.95228, 2,    6882.55, -160.7,   0.95597, 3,    6829.88,   79.1,   0.94865
"182016", 12.47, 1,    6856.06,  -41.0,   0.95229, 2,    6882.68, -160.7,   0.95599, 3,    6829.97,   79.1,   0.94867
"182011", 12.47, 1,     6856.8,  -41.0,   0.95239, 2,    6883.77, -160.7,   0.95614, 3,    6830.88,   79.1,   0.94879
"182014", 12.47, 1,    6856.43,  -41.0,   0.95234, 2,    6883.23, -160.7,   0.95606, 3,    6830.43,   79.1,   0.94873
"182018", 12.47, 1,    6855.84,  -41.0,   0.95226, 2,    6882.35, -160.7,   0.95594, 3,    6829.71,   79.1,   0.94863
"182019", 12.47, 1,    6855.48,  -41.0,   0.95221, 2,    6881.82, -160.7,   0.95587, 3,    6829.27,   79.1,   0.94857
"182020", 12.47, 1,    6854.24,  -41.0,   0.95204, 2,       6880, -160.7,   0.95561, 3,    6827.77,   79.1,   0.94836
"182017", 12.47, 1,     6853.3,  -41.0,   0.95191, 2,     6878.6, -160.7,   0.95542, 3,    6826.62,   79.1,    0.9482
"182022", 12.47, 1,    6853.25,  -41.0,    0.9519, 2,    6878.27, -160.7,   0.95537, 3,    6826.66,   79.1,   0.94821
"182021", 12.47, 1,    6853.24,  -41.0,    0.9519, 2,    6878.15, -160.7,   0.95536, 3,    6826.69,   79.1,   0.94821
"182024", 12.47, 1,    6852.54,  -41.0,    0.9518, 2,    6877.77, -160.7,    0.9553, 3,    6825.58,   79.1,   0.94806
"182025", 12.47, 1,    6852.53,  -41.0,    0.9518, 2,    6877.76, -160.7,    0.9553, 3,    6825.57,   79.1,   0.94805
"182023", 12.47, 1,    6852.59,  -41.0,   0.95181, 2,    6877.82, -160.7,   0.95531, 3,    6825.63,   79.1,   0.94806
"215930", 12.47, 1,    6851.84,  -41.0,    0.9517, 2,    6876.99, -160.7,    0.9552, 3,    6824.54,   79.1,   0.94791
"182027", 12.47, 1,    6852.41,  -41.0,   0.95178, 2,    6877.64, -160.7,   0.95529, 3,    6825.45,   79.1,   0.94804
"247589", 12.47, 1,     6856.8,  -41.0,   0.95239, 2,    6883.77, -160.7,   0.95614, 3,    6830.88,   79.1,   0.94879
"182030", 12.47, 1,     6856.8,  -41.0,   0.95239, 2,    6883.77, -160.7,   0.95614, 3,    6830.88,   79.1,   0.94879
...
"X_0862099", 0.208, 1,    114.971,  -70.2,   0.95738, 2,    114.954,  169.9,   0.95724, 3,    114.982,   49.9,   0.95748
"S1X_0862099", 0.208, 1,    114.444,  -70.1,     0.953, 2,    114.468,  169.9,   0.95319, 3,    114.519,   49.9,   0.95362
"S2X_0862099", 0.208, 1,    114.444,  -70.1,     0.953, 2,    114.468,  169.9,   0.95319, 3,    114.519,   49.9,   0.95362
"S3X_0862099", 0.208, 1,    114.444,  -70.1,     0.953, 2,    114.468,  169.9,   0.95319, 3,    114.519,   49.9,   0.95362
"X_1000663", 0.4157, 1,    230.802,  -39.6,   0.96166, 2,    230.876, -159.5,   0.96197, 3,    230.731,   80.5,   0.96136
"S1X_1000663", 0.4157, 1,     229.87,  -39.5,   0.95777, 2,    229.888, -159.5,   0.95785, 3,    229.703,   80.5,   0.95708
"X_1000252", 0.4157, 2,    230.609, -159.8,   0.96085, 0, 0, 0, 0, 0, 0, 0, 0
"S1X_1000252", 0.4157, 2,    229.146, -159.8,   0.95476, 0, 0, 0, 0, 0, 0, 0, 0
"X_1001746", 0.208, 1,    114.573,  -70.8,   0.95407, 2,    114.568,  169.2,   0.95403, 3,    114.666,   49.2,   0.95484
"S1X_1001746", 0.208, 1,    113.521,  -70.8,    0.9453, 2,    113.599,  169.3,   0.94596, 3,    113.738,   49.2,   0.94711
"S2X_1001746", 0.208, 1,    113.521,  -70.8,    0.9453, 2,    113.599,  169.3,   0.94596, 3,    113.738,   49.2,   0.94711
"S3X_1001746", 0.208, 1,    113.521,  -70.8,    0.9453, 2,    113.599,  169.3,   0.94596, 3,    113.738,   49.2,   0.94711
"X_1000502", 0.4157, 2,    230.503, -160.1,   0.96041, 0, 0, 0, 0, 0, 0, 0, 0
"S1X_1000502", 0.4157, 2,    227.538, -160.0,   0.94806, 0, 0, 0, 0, 0, 0, 0, 0
"X_1000824", 0.4157, 1,    229.848,  -40.2,   0.95768, 2,    230.268, -160.1,   0.95943, 3,    229.538,   79.9,   0.95639
"S1X_1000824", 0.4157, 1,    229.537,  -40.2,   0.95639, 2,    229.938, -160.0,   0.95806, 3,    229.196,   79.9,   0.95496
"S2X_1000824", 0.4157, 1,    229.537,  -40.2,   0.95639, 2,    229.938, -160.0,   0.95806, 3,    229.196,   79.9,   0.95496
"S3X_1000824", 0.4157, 1,    229.537,  -40.2,   0.95639, 2,    229.938, -160.0,   0.95806, 3,    229.196,   79.9,   0.95496
"X_1001745", 0.208, 1,    114.556,  -70.8,   0.95392, 2,     114.55,  169.2,   0.95388, 3,    114.648,   49.2,   0.95469
"S1X_1001745", 0.208, 1,    113.503,  -70.8,   0.94516, 2,    113.581,  169.3,   0.94581, 3,     113.72,   49.2,   0.94697
"S2X_1001745", 0.208, 1,    113.503,  -70.8,   0.94516, 2,    113.581,  169.3,   0.94581, 3,     113.72,   49.2,   0.94697
"S3X_1001745", 0.208, 1,    113.503,  -70.8,   0.94516, 2,    113.581,  169.3,   0.94581, 3,     113.72,   49.2,   0.94697
"X_1001329", 0.208, 1,     114.49,  -70.8,   0.95338, 2,    114.486,  169.3,   0.95335, 3,    114.585,   49.3,   0.95417
"S1X_1001329", 0.208, 1,    113.963,  -70.8,   0.94899, 2,    114.001,  169.3,   0.94931, 3,    114.122,   49.3,   0.95031
"S2X_1001329", 0.208, 1,    113.963,  -70.8,   0.94899, 2,    114.001,  169.3,   0.94931, 3,    114.122,   49.3,   0.95031
"S3X_1001329", 0.208, 1,    113.963,  -70.8,   0.94899, 2,    114.001,  169.3,   0.94931, 3,    114.122,   49.3,   0.95031
"X_1001359", 0.208, 1,    114.118,  -71.1,   0.95028, 2,    114.113,  169.0,   0.95024, 3,    114.209,   49.0,   0.95104
"S1X_1001359", 0.208, 1,    112.366,  -71.0,   0.93569, 2,    112.501,  169.0,   0.93681, 3,    112.662,   49.0,   0.93816
"S2X_1001359", 0.208, 1,    112.366,  -71.0,   0.93569, 2,    112.501,  169.0,   0.93681, 3,    112.662,   49.0,   0.93816
"S3X_1001359", 0.208, 1,    112.366,  -71.0,   0.93569, 2,    112.501,  169.0,   0.93681, 3,    112.662,   49.0,   0.93816
"X_1001330", 0.208, 1,    114.541,  -70.8,    0.9538, 2,    114.537,  169.2,   0.95377, 3,    114.636,   49.2,   0.95459
"S1X_1001330", 0.208, 1,    114.014,  -70.8,   0.94941, 2,    114.052,  169.3,   0.94973, 3,    114.172,   49.2,   0.95073
"S2X_1001330", 0.208, 1,    114.014,  -70.8,   0.94941, 2,    114.052,  169.3,   0.94973, 3,    114.172,   49.2,   0.95073
"S3X_1001330", 0.208, 1,    114.014,  -70.8,   0.94941, 2,    114.052,  169.3,   0.94973, 3,    114.172,   49.2,   0.95073
"S4X_1001330", 0.208, 1,    114.014,  -70.8,   0.94941, 2,    114.052,  169.3,   0.94973, 3,    114.172,   49.2,   0.95073
"S5X_1001330", 0.208, 1,    114.014,  -70.8,   0.94941, 2,    114.052,  169.3,   0.94973, 3,    114.172,   49.2,   0.95073
"S6X_1001330", 0.208, 1,    114.014,  -70.8,   0.94941, 2,    114.052,  169.3,   0.94973, 3,    114.172,   49.2,   0.95073
"X_1000672", 0.4157, 1,    229.477,  -40.3,   0.95614, 0, 0, 0, 0, 0, 0, 0, 0
"S1X_1000672", 0.4157, 1,    228.545,  -40.3,   0.95225, 0, 0, 0, 0, 0, 0, 0, 0
"X_1001708", 0.208, 1,    113.951,  -71.2,   0.94889, 2,    113.964,  168.9,     0.949, 3,    114.067,   48.9,   0.94985
"S1X_1001708", 0.208, 1,    111.327,  -71.1,   0.92704, 2,    111.551,  169.0,    0.9289, 3,    111.743,   48.9,    0.9305
"S2X_1001708", 0.208, 1,    111.327,  -71.1,   0.92704, 2,    111.551,  169.0,    0.9289, 3,    111.743,   48.9,    0.9305
"S3X_1001708", 0.208, 1,    111.327,  -71.1,   0.92704, 2,    111.551,  169.0,    0.9289, 3,    111.743,   48.9,    0.9305
"X_1001345", 0.208, 1,    114.247,  -70.9,   0.95136, 2,    114.264,  169.2,   0.95149, 3,    114.378,   49.1,   0.95245
"S1X_1001345", 0.208, 1,     113.72,  -70.9,   0.94697, 2,    113.779,  169.2,   0.94746, 3,    113.915,   49.1,   0.94859
"S2X_1001345", 0.208, 1,     113.72,  -70.9,   0.94697, 2,    113.779,  169.2,   0.94746, 3,    113.915,   49.1,   0.94859
"S3X_1001345", 0.208, 1,     113.72,  -70.9,   0.94697, 2,    113.779,  169.2,   0.94746, 3,    113.915,   49.1,   0.94859
"X_1000933", 0.208, 1,    114.241,  -70.9,   0.95131, 2,    114.258,  169.2,   0.95145, 3,    114.373,   49.1,   0.95241
"S1X_1000933", 0.208, 1,    114.136,  -70.9,   0.95043, 2,    114.161,  169.2,   0.95064, 3,    114.281,   49.1,   0.95163
"S2X_1000933", 0.208, 1,    114.136,  -70.9,   0.95043, 2,    114.161,  169.2,   0.95064, 3,    114.281,   49.1,   0.95163
"S3X_1000933", 0.208, 1,    114.136,  -70.9,   0.95043, 2,    114.161,  169.2,   0.95064, 3,    114.281,   49.1,   0.95163
"S4X_1000933", 0.208, 1,    114.136,  -70.9,   0.95043, 2,    114.161,  169.2,   0.95064, 3,    114.281,   49.1,   0.95163
"S5X_1000933", 0.208, 1,    114.136,  -70.9,   0.95043, 2,    114.161,  169.2,   0.95064, 3,    114.281,   49.1,   0.95163
"S6X_1000933", 0.208, 1,    114.136,  -70.9,   0.95043, 2,    114.161,  169.2,   0.95064, 3,    114.281,   49.1,   0.95163
"S7X_1000933", 0.208, 1,    114.136,  -70.9,   0.95043, 2,    114.161,  169.2,   0.95064, 3,    114.281,   49.1,   0.95163
"S8X_1000933", 0.208, 1,    114.136,  -70.9,   0.95043, 2,    114.161,  169.2,   0.95064, 3,    114.281,   49.1,   0.95163
"S9X_1000933", 0.208, 1,    114.136,  -70.9,   0.95043, 2,    114.161,  169.2,   0.95064, 3,    114.281,   49.1,   0.95163
"S10X_1000933", 0.208, 1,    114.136,  -70.9,   0.95043, 2,    114.161,  169.2,   0.95064, 3,    114.281,   49.1,   0.95163
"S11X_1000933", 0.208, 1,    114.136,  -70.9,   0.95043, 2,    114.161,  169.2,   0.95064, 3,    114.281,   49.1,   0.95163
"S12X_1000933", 0.208, 1,    114.136,  -70.9,   0.95043, 2,    114.161,  169.2,   0.95064, 3,    114.281,   49.1,   0.95163
"S13X_1000933", 0.208, 1,    114.136,  -70.9,   0.95043, 2,    114.161,  169.2,   0.95064, 3,    114.281,   49.1,   0.95163
"S14X_1000933", 0.208, 1,    114.136,  -70.9,   0.95043, 2,    114.161,  169.2,   0.95064, 3,    114.281,   49.1,   0.95163
"S15X_1000933", 0.208, 1,    114.136,  -70.9,   0.95043, 2,    114.161,  169.2,   0.95064, 3,    114.281,   49.1,   0.95163
"X_1001823", 0.4157, 1,    229.385,  -40.5,   0.95575, 0, 0, 0, 0, 0, 0, 0, 0
"S1X_1001823", 0.4157, 1,    228.006,  -40.4,   0.95001, 0, 0, 0, 0, 0, 0, 0, 0
"X_1001822", 0.4157, 1,    228.682,  -40.3,   0.95282, 2,    229.246, -160.0,   0.95517, 3,    228.209,   79.9,   0.95085
"S1X_1001822", 0.4157, 1,    228.496,  -40.2,   0.95205, 2,    229.048, -160.0,   0.95435, 3,    228.004,   79.9,      0.95
"X_1000042", 0.4157, 1,    229.408,  -40.5,   0.95585, 0, 0, 0, 0, 0, 0, 0, 0
"S1X_1000042", 0.4157, 1,    228.875,  -40.5,   0.95363, 0, 0, 0, 0, 0, 0, 0, 0
"S2X_1000042", 0.4157, 1,    228.875,  -40.5,   0.95363, 0, 0, 0, 0, 0, 0, 0, 0
"S3X_1000042", 0.4157, 1,    228.875,  -40.5,   0.95363, 0, 0, 0, 0, 0, 0, 0, 0
"S4X_1000042", 0.4157, 1,    228.875,  -40.5,   0.95363, 0, 0, 0, 0, 0, 0, 0, 0
"S5X_1000042", 0.4157, 1,    228.875,  -40.5,   0.95363, 0, 0, 0, 0, 0, 0, 0, 0
"S6X_1000042", 0.4157, 1,    228.875,  -40.5,   0.95363, 0, 0, 0, 0, 0, 0, 0, 0
"S7X_1000042", 0.4157, 1,    228.875,  -40.5,   0.95363, 0, 0, 0, 0, 0, 0, 0, 0
"X_1000077", 0.4157, 1,    229.307,  -40.5,   0.95543, 0, 0, 0, 0, 0, 0, 0, 0
"S1X_1000077", 0.4157, 1,    228.996,  -40.5,   0.95413, 0, 0, 0, 0, 0, 0, 0, 0
"S2X_1000077", 0.4157, 1,    228.996,  -40.5,   0.95413, 0, 0, 0, 0, 0, 0, 0, 0
"S3X_1000077", 0.4157, 1,    228.996,  -40.5,   0.95413, 0, 0, 0, 0, 0, 0, 0, 0
"S4X_1000077", 0.4157, 1,    228.996,  -40.5,   0.95413, 0, 0, 0, 0, 0, 0, 0, 0
"S5X_1000077", 0.4157, 1,    228.996,  -40.5,   0.95413, 0, 0, 0, 0, 0, 0, 0, 0
"S6X_1000077", 0.4157, 1,    228.996,  -40.5,   0.95413, 0, 0, 0, 0, 0, 0, 0, 0
"X_1000474", 0.4157, 1,      229.3,  -40.5,    0.9554, 0, 0, 0, 0, 0, 0, 0, 0
"S1X_1000474", 0.4157, 1,    228.927,  -40.5,   0.95384, 0, 0, 0, 0, 0, 0, 0, 0
"S2X_1000474", 0.4157, 1,    228.927,  -40.5,   0.95384, 0, 0, 0, 0, 0, 0, 0, 0
"S3X_1000474", 0.4157, 1,    228.927,  -40.5,   0.95384, 0, 0, 0, 0, 0, 0, 0, 0
"S4X_1000474", 0.4157, 1,    228.927,  -40.5,   0.95384, 0, 0, 0, 0, 0, 0, 0, 0
"S5X_1000474", 0.4157, 1,    228.927,  -40.5,   0.95384, 0, 0, 0, 0, 0, 0, 0, 0
"X_1000043", 0.4157, 1,     229.31,  -40.5,   0.95544, 0, 0, 0, 0, 0, 0, 0, 0
"S1X_1000043", 0.4157, 1,    228.999,  -40.5,   0.95415, 0, 0, 0, 0, 0, 0, 0, 0
"S2X_1000043", 0.4157, 1,    228.999,  -40.5,   0.95415, 0, 0, 0, 0, 0, 0, 0, 0
"S3X_1000043", 0.4157, 1,    228.999,  -40.5,   0.95415, 0, 0, 0, 0, 0, 0, 0, 0
"S4X_1000043", 0.4157, 1,    228.999,  -40.5,   0.95415, 0, 0, 0, 0, 0, 0, 0, 0
"S5X_1000043", 0.4157, 1,    228.999,  -40.5,   0.95415, 0, 0, 0, 0, 0, 0, 0, 0
"S6X_1000043", 0.4157, 1,    228.999,  -40.5,   0.95415, 0, 0, 0, 0, 0, 0, 0, 0
"X_1001567", 0.208, 1,    114.182,  -71.1,   0.95081, 2,    114.209,  169.0,   0.95104, 3,    114.342,   49.0,   0.95214
"S1X_1001567", 0.208, 1,    113.655,  -71.0,   0.94642, 2,    113.725,  169.0,   0.94701, 3,    113.878,   49.0,   0.94828
"S2X_1001567", 0.208, 1,    113.655,  -71.0,   0.94642, 2,    113.725,  169.0,   0.94701, 3,    113.878,   49.0,   0.94828
"S3X_1001567", 0.208, 1,    113.655,  -71.0,   0.94642, 2,    113.725,  169.0,   0.94701, 3,    113.878,   49.0,   0.94828
"X_1000233", 0.4157, 2,    228.069, -160.8,   0.95027, 0, 0, 0, 0, 0, 0, 0, 0
"S1X_1000233", 0.4157, 2,    226.607, -160.8,   0.94418, 0, 0, 0, 0, 0, 0, 0, 0
"X_1000569", 0.208, 1,    113.193,  -71.6,   0.94257, 2,    113.322,  168.5,   0.94365, 3,    113.429,   48.4,   0.94455
"S1X_1000569", 0.208, 1,    112.142,  -71.6,   0.93382, 2,    112.357,  168.5,   0.93561, 3,      112.5,   48.4,    0.9368
"S2X_1000569", 0.208, 1,    112.142,  -71.6,   0.93382, 2,    112.357,  168.5,   0.93561, 3,      112.5,   48.4,    0.9368
"S3X_1000569", 0.208, 1,    112.142,  -71.6,   0.93382, 2,    112.357,  168.5,   0.93561, 3,      112.5,   48.4,    0.9368
"X_1000746", 0.208, 1,    113.155,  -71.6,   0.94226, 2,     113.28,  168.5,    0.9433, 3,    113.389,   48.4,   0.94421
"S1X_1000746", 0.208, 1,    112.103,  -71.6,    0.9335, 2,    112.315,  168.5,   0.93526, 3,    112.459,   48.4,   0.93647
"S2X_1000746", 0.208, 1,    112.103,  -71.6,    0.9335, 2,    112.315,  168.5,   0.93526, 3,    112.459,   48.4,   0.93647
"S3X_1000746", 0.208, 1,    112.103,  -71.6,    0.9335, 2,    112.315,  168.5,   0.93526, 3,    112.459,   48.4,   0.93647
"X_1000608", 0.4157, 1,    227.303,  -41.2,   0.94708, 0, 0, 0, 0, 0, 0, 0, 0
"S1X_1000608", 0.4157, 1,    226.954,  -41.2,   0.94562, 0, 0, 0, 0, 0, 0, 0, 0
"S2X_1000608", 0.4157, 1,    226.954,  -41.2,   0.94562, 0, 0, 0, 0, 0, 0, 0, 0
"S3X_1000608", 0.4157, 1,    226.954,  -41.2,   0.94562, 0, 0, 0, 0, 0, 0, 0, 0
"S4X_1000608", 0.4157, 1,    226.954,  -41.2,   0.94562, 0, 0, 0, 0, 0, 0, 0, 0
"S5X_1000608", 0.4157, 1,    226.954,  -41.2,   0.94562, 0, 0, 0, 0, 0, 0, 0, 0
"S6X_1000608", 0.4157, 1,    226.954,  -41.2,   0.94562, 0, 0, 0, 0, 0, 0, 0, 0
"S7X_1000608", 0.4157, 1,    226.954,  -41.2,   0.94562, 0, 0, 0, 0, 0, 0, 0, 0
"S8X_1000608", 0.4157, 1,    226.954,  -41.2,   0.94562, 0, 0, 0, 0, 0, 0, 0, 0
"X_1000609", 0.4157, 1,    227.106,  -41.2,   0.94626, 0, 0, 0, 0, 0, 0, 0, 0
"S1X_1000609", 0.4157, 1,    226.936,  -41.2,   0.94555, 0, 0, 0, 0, 0, 0, 0, 0
"S2X_1000609", 0.4157, 1,    226.936,  -41.2,   0.94555, 0, 0, 0, 0, 0, 0, 0, 0
"S3X_1000609", 0.4157, 1,    226.936,  -41.2,   0.94555, 0, 0, 0, 0, 0, 0, 0, 0
"S4X_1000609", 0.4157, 1,    226.936,  -41.2,   0.94555, 0, 0, 0, 0, 0, 0, 0, 0
"S5X_1000609", 0.4157, 1,    226.936,  -41.2,   0.94555, 0, 0, 0, 0, 0, 0, 0, 0
"S6X_1000609", 0.4157, 1,    226.936,  -41.2,   0.94555, 0, 0, 0, 0, 0, 0, 0, 0
"S7X_1000609", 0.4157, 1,    226.936,  -41.2,   0.94555, 0, 0, 0, 0, 0, 0, 0, 0
"S8X_1000609", 0.4157, 1,    226.936,  -41.2,   0.94555, 0, 0, 0, 0, 0, 0, 0, 0
"S9X_1000609", 0.4157, 1,    226.936,  -41.2,   0.94555, 0, 0, 0, 0, 0, 0, 0, 0
"S10X_1000609", 0.4157, 1,    226.936,  -41.2,   0.94555, 0, 0, 0, 0, 0, 0, 0, 0
"S11X_1000609", 0.4157, 1,    226.936,  -41.2,   0.94555, 0, 0, 0, 0, 0, 0, 0, 0
"X_1000610", 0.4157, 1,     227.17,  -41.2,   0.94652, 0, 0, 0, 0, 0, 0, 0, 0
"S1X_1000610", 0.4157, 1,    226.831,  -41.2,   0.94511, 0, 0, 0, 0, 0, 0, 0, 0
"S2X_1000610", 0.4157, 1,    226.831,  -41.2,   0.94511, 0, 0, 0, 0, 0, 0, 0, 0
"S3X_1000610", 0.4157, 1,    226.831,  -41.2,   0.94511, 0, 0, 0, 0, 0, 0, 0, 0
"S4X_1000610", 0.4157, 1,    226.831,  -41.2,   0.94511, 0, 0, 0, 0, 0, 0, 0, 0
"S5X_1000610", 0.4157, 1,    226.831,  -41.2,   0.94511, 0, 0, 0, 0, 0, 0, 0, 0
"S6X_1000610", 0.4157, 1,    226.831,  -41.2,   0.94511, 0, 0, 0, 0, 0, 0, 0, 0
"S7X_1000610", 0.4157, 1,    226.831,  -41.2,   0.94511, 0, 0, 0, 0, 0, 0, 0, 0
"S8X_1000610", 0.4157, 1,    226.831,  -41.2,   0.94511, 0, 0, 0, 0, 0, 0, 0, 0
"S9X_1000610", 0.4157, 1,    226.831,  -41.2,   0.94511, 0, 0, 0, 0, 0, 0, 0, 0
"S10X_1000610", 0.4157, 1,    226.831,  -41.2,   0.94511, 0, 0, 0, 0, 0, 0, 0, 0
"S11X_1000610", 0.4157, 1,    226.831,  -41.2,   0.94511, 0, 0, 0, 0, 0, 0, 0, 0
"X_1000611", 0.4157, 1,    227.094,  -41.2,   0.94621, 0, 0, 0, 0, 0, 0, 0, 0
"S1X_1000611", 0.4157, 1,    226.722,  -41.2,   0.94466, 0, 0, 0, 0, 0, 0, 0, 0
"S2X_1000611", 0.4157, 1,    226.722,  -41.2,   0.94466, 0, 0, 0, 0, 0, 0, 0, 0
"S3X_1000611", 0.4157, 1,    226.722,  -41.2,   0.94466, 0, 0, 0, 0, 0, 0, 0, 0
"S4X_1000611", 0.4157, 1,    226.722,  -41.2,   0.94466, 0, 0, 0, 0, 0, 0, 0, 0
"S5X_1000611", 0.4157, 1,    226.722,  -41.2,   0.94466, 0, 0, 0, 0, 0, 0, 0, 0
"X_1000612", 0.4157, 1,    227.158,  -41.2,   0.94648, 0, 0, 0, 0, 0, 0, 0, 0
"S1X_1000612", 0.4157, 1,    226.693,  -41.2,   0.94453, 0, 0, 0, 0, 0, 0, 0, 0
"S2X_1000612", 0.4157, 1,    226.693,  -41.2,   0.94453, 0, 0, 0, 0, 0, 0, 0, 0
"S3X_1000612", 0.4157, 1,    226.693,  -41.2,   0.94453, 0, 0, 0, 0, 0, 0, 0, 0
"S4X_1000612", 0.4157, 1,    226.693,  -41.2,   0.94453, 0, 0, 0, 0, 0, 0, 0, 0
"S5X_1000612", 0.4157, 1,    226.693,  -41.2,   0.94453, 0, 0, 0, 0, 0, 0, 0, 0
"S6X_1000612", 0.4157, 1,    226.693,  -41.2,   0.94453, 0, 0, 0, 0, 0, 0, 0, 0
"S7X_1000612", 0.4157, 1,    226.693,  -41.2,   0.94453, 0, 0, 0, 0, 0, 0, 0, 0
"S8X_1000612", 0.4157, 1,    226.693,  -41.2,   0.94453, 0, 0, 0, 0, 0, 0, 0, 0
"X_1000598", 0.4157, 3,    226.466,   79.0,   0.94359, 0, 0, 0, 0, 0, 0, 0, 0
"S1X_1000598", 0.4157, 3,    226.124,   79.0,   0.94217, 0, 0, 0, 0, 0, 0, 0, 0
"S2X_1000598", 0.4157, 3,    226.124,   79.0,   0.94217, 0, 0, 0, 0, 0, 0, 0, 0
"S3X_1000598", 0.4157, 3,    226.124,   79.0,   0.94217, 0, 0, 0, 0, 0, 0, 0, 0
"S4X_1000598", 0.4157, 3,    226.124,   79.0,   0.94217, 0, 0, 0, 0, 0, 0, 0, 0
"S5X_1000598", 0.4157, 3,    226.124,   79.0,   0.94217, 0, 0, 0, 0, 0, 0, 0, 0
"S6X_1000598", 0.4157, 3,    226.124,   79.0,   0.94217, 0, 0, 0, 0, 0, 0, 0, 0
"S7X_1000598", 0.4157, 3,    226.124,   79.0,   0.94217, 0, 0, 0, 0, 0, 0, 0, 0
"S8X_1000598", 0.4157, 3,    226.124,   79.0,   0.94217, 0, 0, 0, 0, 0, 0, 0, 0
"S9X_1000598", 0.4157, 3,    226.124,   79.0,   0.94217, 0, 0, 0, 0, 0, 0, 0, 0
"X_1000599", 0.4157, 3,    226.465,   79.0,   0.94358, 0, 0, 0, 0, 0, 0, 0, 0
"S1X_1000599", 0.4157, 3,    226.184,   79.0,   0.94242, 0, 0, 0, 0, 0, 0, 0, 0
"S2X_1000599", 0.4157, 3,    226.184,   79.0,   0.94242, 0, 0, 0, 0, 0, 0, 0, 0
"S3X_1000599", 0.4157, 3,    226.184,   79.0,   0.94242, 0, 0, 0, 0, 0, 0, 0, 0
"S4X_1000599", 0.4157, 3,    226.184,   79.0,   0.94242, 0, 0, 0, 0, 0, 0, 0, 0
"S5X_1000599", 0.4157, 3,    226.184,   79.0,   0.94242, 0, 0, 0, 0, 0, 0, 0, 0
"S6X_1000599", 0.4157, 3,    226.184,   79.0,   0.94242, 0, 0, 0, 0, 0, 0, 0, 0
"S7X_1000599", 0.4157, 3,    226.184,   79.0,   0.94242, 0, 0, 0, 0, 0, 0, 0, 0
"S8X_1000599", 0.4157, 3,    226.184,   79.0,   0.94242, 0, 0, 0, 0, 0, 0, 0, 0
"S9X_1000599", 0.4157, 3,    226.184,   79.0,   0.94242, 0, 0, 0, 0, 0, 0, 0, 0
"S10X_1000599", 0.4157, 3,    226.184,   79.0,   0.94242, 0, 0, 0, 0, 0, 0, 0, 0
"S11X_1000599", 0.4157, 3,    226.184,   79.0,   0.94242, 0, 0, 0, 0, 0, 0, 0, 0
"X_1000600", 0.4157, 3,    226.267,   78.9,   0.94276, 0, 0, 0, 0, 0, 0, 0, 0
"S1X_1000600", 0.4157, 3,    226.038,   78.9,   0.94181, 0, 0, 0, 0, 0, 0, 0, 0
"S2X_1000600", 0.4157, 3,    226.038,   78.9,   0.94181, 0, 0, 0, 0, 0, 0, 0, 0
"S3X_1000600", 0.4157, 3,    226.038,   78.9,   0.94181, 0, 0, 0, 0, 0, 0, 0, 0
"S4X_1000600", 0.4157, 3,    226.038,   78.9,   0.94181, 0, 0, 0, 0, 0, 0, 0, 0
"S5X_1000600", 0.4157, 3,    226.038,   78.9,   0.94181, 0, 0, 0, 0, 0, 0, 0, 0
"S6X_1000600", 0.4157, 3,    226.038,   78.9,   0.94181, 0, 0, 0, 0, 0, 0, 0, 0
"S7X_1000600", 0.4157, 3,    226.038,   78.9,   0.94181, 0, 0, 0, 0, 0, 0, 0, 0
"S8X_1000600", 0.4157, 3,    226.038,   78.9,   0.94181, 0, 0, 0, 0, 0, 0, 0, 0
"S9X_1000600", 0.4157, 3,    226.038,   78.9,   0.94181, 0, 0, 0, 0, 0, 0, 0, 0
"X_1000602", 0.4157, 3,    226.263,   78.9,   0.94275, 0, 0, 0, 0, 0, 0, 0, 0
"S1X_1000602", 0.4157, 3,    226.006,   79.0,   0.94168, 0, 0, 0, 0, 0, 0, 0, 0
"S2X_1000602", 0.4157, 3,    226.006,   79.0,   0.94168, 0, 0, 0, 0, 0, 0, 0, 0
"S3X_1000602", 0.4157, 3,    226.006,   79.0,   0.94168, 0, 0, 0, 0, 0, 0, 0, 0
"S4X_1000602", 0.4157, 3,    226.006,   79.0,   0.94168, 0, 0, 0, 0, 0, 0, 0, 0
"S5X_1000602", 0.4157, 3,    226.006,   79.0,   0.94168, 0, 0, 0, 0, 0, 0, 0, 0
"S6X_1000602", 0.4157, 3,    226.006,   79.0,   0.94168, 0, 0, 0, 0, 0, 0, 0, 0
"S7X_1000602", 0.4157, 3,    226.006,   79.0,   0.94168, 0, 0, 0, 0, 0, 0, 0, 0
"S8X_1000602", 0.4157, 3,    226.006,   79.0,   0.94168, 0, 0, 0, 0, 0, 0, 0, 0
"X_1000601", 0.4157, 3,    226.264,   78.9,   0.94275, 0, 0, 0, 0, 0, 0, 0, 0
"S1X_1000601", 0.4157, 3,    226.007,   79.0,   0.94168, 0, 0, 0, 0, 0, 0, 0, 0
"S2X_1000601", 0.4157, 3,    226.007,   79.0,   0.94168, 0, 0, 0, 0, 0, 0, 0, 0
"S3X_1000601", 0.4157, 3,    226.007,   79.0,   0.94168, 0, 0, 0, 0, 0, 0, 0, 0
"S4X_1000601", 0.4157, 3,    226.007,   79.0,   0.94168, 0, 0, 0, 0, 0, 0, 0, 0
"S5X_1000601", 0.4157, 3,    226.007,   79.0,   0.94168, 0, 0, 0, 0, 0, 0, 0, 0
"S6X_1000601", 0.4157, 3,    226.007,   79.0,   0.94168, 0, 0, 0, 0, 0, 0, 0, 0
"S7X_1000601", 0.4157, 3,    226.007,   79.0,   0.94168, 0, 0, 0, 0, 0, 0, 0, 0
"S8X_1000601", 0.4157, 3,    226.007,   79.0,   0.94168, 0, 0, 0, 0, 0, 0, 0, 0
"X_1000603", 0.4157, 2,    228.165, -160.8,   0.95067, 0, 0, 0, 0, 0, 0, 0, 0
"S1X_1000603", 0.4157, 2,    227.742, -160.8,   0.94891, 0, 0, 0, 0, 0, 0, 0, 0
"S2X_1000603", 0.4157, 2,    227.742, -160.8,   0.94891, 0, 0, 0, 0, 0, 0, 0, 0
"S3X_1000603", 0.4157, 2,    227.742, -160.8,   0.94891, 0, 0, 0, 0, 0, 0, 0, 0
"S4X_1000603", 0.4157, 2,    227.742, -160.8,   0.94891, 0, 0, 0, 0, 0, 0, 0, 0
"S5X_1000603", 0.4157, 2,    227.742, -160.8,   0.94891, 0, 0, 0, 0, 0, 0, 0, 0
"S6X_1000603", 0.4157, 2,    227.742, -160.8,   0.94891, 0, 0, 0, 0, 0, 0, 0, 0
"S7X_1000603", 0.4157, 2,    227.742, -160.8,   0.94891, 0, 0, 0, 0, 0, 0, 0, 0
"X_1000604", 0.4157, 2,     228.15, -160.8,   0.95061, 0, 0, 0, 0, 0, 0, 0, 0
"S1X_1000604", 0.4157, 2,    227.952, -160.8,   0.94978, 0, 0, 0, 0, 0, 0, 0, 0
"S2X_1000604", 0.4157, 2,    227.952, -160.8,   0.94978, 0, 0, 0, 0, 0, 0, 0, 0
"S3X_1000604", 0.4157, 2,    227.952, -160.8,   0.94978, 0, 0, 0, 0, 0, 0, 0, 0
"S4X_1000604", 0.4157, 2,    227.952, -160.8,   0.94978, 0, 0, 0, 0, 0, 0, 0, 0
"S5X_1000604", 0.4157, 2,    227.952, -160.8,   0.94978, 0, 0, 0, 0, 0, 0, 0, 0
"S6X_1000604", 0.4157, 2,    227.952, -160.8,   0.94978, 0, 0, 0, 0, 0, 0, 0, 0
"S7X_1000604", 0.4157, 2,    227.952, -160.8,   0.94978, 0, 0, 0, 0, 0, 0, 0, 0
"S8X_1000604", 0.4157, 2,    227.952, -160.8,   0.94978, 0, 0, 0, 0, 0, 0, 0, 0
"S9X_1000604", 0.4157, 2,    227.952, -160.8,   0.94978, 0, 0, 0, 0, 0, 0, 0, 0
"S10X_1000604", 0.4157, 2,    227.952, -160.8,   0.94978, 0, 0, 0, 0, 0, 0, 0, 0
"S11X_1000604", 0.4157, 2,    227.952, -160.8,   0.94978, 0, 0, 0, 0, 0, 0, 0, 0
"S12X_1000604", 0.4157, 2,    227.952, -160.8,   0.94978, 0, 0, 0, 0, 0, 0, 0, 0
"S13X_1000604", 0.4157, 2,    227.952, -160.8,   0.94978, 0, 0, 0, 0, 0, 0, 0, 0
"S14X_1000604", 0.4157, 2,    227.952, -160.8,   0.94978, 0, 0, 0, 0, 0, 0, 0, 0
"S15X_1000604", 0.4157, 2,    227.952, -160.8,   0.94978, 0, 0, 0, 0, 0, 0, 0, 0
"X_1000605", 0.4157, 2,    228.019, -160.9,   0.95006, 0, 0, 0, 0, 0, 0, 0, 0
"S1X_1000605", 0.4157, 2,     227.66, -160.9,   0.94857, 0, 0, 0, 0, 0, 0, 0, 0
"S2X_1000605", 0.4157, 2,     227.66, -160.9,   0.94857, 0, 0, 0, 0, 0, 0, 0, 0
"S3X_1000605", 0.4157, 2,     227.66, -160.9,   0.94857, 0, 0, 0, 0, 0, 0, 0, 0
"S4X_1000605", 0.4157, 2,     227.66, -160.9,   0.94857, 0, 0, 0, 0, 0, 0, 0, 0
"S5X_1000605", 0.4157, 2,     227.66, -160.9,   0.94857, 0, 0, 0, 0, 0, 0, 0, 0
"S6X_1000605", 0.4157, 2,     227.66, -160.9,   0.94857, 0, 0, 0, 0, 0, 0, 0, 0
"S7X_1000605", 0.4157, 2,     227.66, -160.9,   0.94857, 0, 0, 0, 0, 0, 0, 0, 0
"S8X_1000605", 0.4157, 2,     227.66, -160.9,   0.94857, 0, 0, 0, 0, 0, 0, 0, 0
"S9X_1000605", 0.4157, 2,     227.66, -160.9,   0.94857, 0, 0, 0, 0, 0, 0, 0, 0
"S10X_1000605", 0.4157, 2,     227.66, -160.9,   0.94857, 0, 0, 0, 0, 0, 0, 0, 0
"S11X_1000605", 0.4157, 2,     227.66, -160.9,   0.94857, 0, 0, 0, 0, 0, 0, 0, 0
"X_1000606", 0.4157, 2,    228.124, -160.8,    0.9505, 0, 0, 0, 0, 0, 0, 0, 0
"S1X_1000606", 0.4157, 2,    227.877, -160.8,   0.94947, 0, 0, 0, 0, 0, 0, 0, 0
"S2X_1000606", 0.4157, 2,    227.877, -160.8,   0.94947, 0, 0, 0, 0, 0, 0, 0, 0
"S3X_1000606", 0.4157, 2,    227.877, -160.8,   0.94947, 0, 0, 0, 0, 0, 0, 0, 0
"S4X_1000606", 0.4157, 2,    227.877, -160.8,   0.94947, 0, 0, 0, 0, 0, 0, 0, 0
"S5X_1000606", 0.4157, 2,    227.877, -160.8,   0.94947, 0, 0, 0, 0, 0, 0, 0, 0
"S6X_1000606", 0.4157, 2,    227.877, -160.8,   0.94947, 0, 0, 0, 0, 0, 0, 0, 0
"S7X_1000606", 0.4157, 2,    227.877, -160.8,   0.94947, 0, 0, 0, 0, 0, 0, 0, 0
"S8X_1000606", 0.4157, 2,    227.877, -160.8,   0.94947, 0, 0, 0, 0, 0, 0, 0, 0
"S9X_1000606", 0.4157, 2,    227.877, -160.8,   0.94947, 0, 0, 0, 0, 0, 0, 0, 0
"S10X_1000606", 0.4157, 2,    227.877, -160.8,   0.94947, 0, 0, 0, 0, 0, 0, 0, 0
"S11X_1000606", 0.4157, 2,    227.877, -160.8,   0.94947, 0, 0, 0, 0, 0, 0, 0, 0
"S12X_1000606", 0.4157, 2,    227.877, -160.8,   0.94947, 0, 0, 0, 0, 0, 0, 0, 0
"X_1000607", 0.4157, 2,    227.946, -160.9,   0.94976, 0, 0, 0, 0, 0, 0, 0, 0
"S1X_1000607", 0.4157, 2,    227.699, -160.9,   0.94873, 0, 0, 0, 0, 0, 0, 0, 0
"S2X_1000607", 0.4157, 2,    227.699, -160.9,   0.94873, 0, 0, 0, 0, 0, 0, 0, 0
"S3X_1000607", 0.4157, 2,    227.699, -160.9,   0.94873, 0, 0, 0, 0, 0, 0, 0, 0
"S4X_1000607", 0.4157, 2,    227.699, -160.9,   0.94873, 0, 0, 0, 0, 0, 0, 0, 0
"S5X_1000607", 0.4157, 2,    227.699, -160.9,   0.94873, 0, 0, 0, 0, 0, 0, 0, 0
"S6X_1000607", 0.4157, 2,    227.699, -160.9,   0.94873, 0, 0, 0, 0, 0, 0, 0, 0
"S7X_1000607", 0.4157, 2,    227.699, -160.9,   0.94873, 0, 0, 0, 0, 0, 0, 0, 0
"S8X_1000607", 0.4157, 2,    227.699, -160.9,   0.94873, 0, 0, 0, 0, 0, 0, 0, 0
"X_1001933", 0.208, 1,    112.955,  -71.8,   0.94059, 2,    113.092,  168.3,   0.94173, 3,    113.198,   48.2,   0.94262
"S1X_1001933", 0.208, 1,    109.463,  -71.8,   0.91152, 2,    109.889,  168.4,   0.91506, 3,    110.091,   48.2,   0.91674
"S2X_1001933", 0.208, 1,    109.463,  -71.8,   0.91152, 2,    109.889,  168.4,   0.91506, 3,    110.091,   48.2,   0.91674
"S3X_1001933", 0.208, 1,    109.463,  -71.8,   0.91152, 2,    109.889,  168.4,   0.91506, 3,    110.091,   48.2,   0.91674
"X_1000198", 0.4157, 1,    227.338,  -41.0,   0.94722, 0, 0, 0, 0, 0, 0, 0, 0
"S1X_1000198", 0.4157, 1,    226.965,  -41.0,   0.94567, 0, 0, 0, 0, 0, 0, 0, 0
"X_1000548", 0.4157, 1,    227.453,  -41.2,    0.9477, 0, 0, 0, 0, 0, 0, 0, 0
"S1X_1000548", 0.4157, 1,     225.59,  -41.2,   0.93994, 0, 0, 0, 0, 0, 0, 0, 0
"X_1000069", 0.208, 1,    113.268,  -71.6,    0.9432, 2,    113.406,  168.5,   0.94435, 3,    113.515,   48.4,   0.94526
"S1X_1000069", 0.208, 1,    112.742,  -71.6,   0.93882, 2,    112.923,  168.5,   0.94033, 3,     113.05,   48.4,   0.94139
"S2X_1000069", 0.208, 1,    112.742,  -71.6,   0.93882, 2,    112.923,  168.5,   0.94033, 3,     113.05,   48.4,   0.94139
"S3X_1000069", 0.208, 1,    112.742,  -71.6,   0.93882, 2,    112.923,  168.5,   0.94033, 3,     113.05,   48.4,   0.94139
"S4X_1000069", 0.208, 1,    112.742,  -71.6,   0.93882, 2,    112.923,  168.5,   0.94033, 3,     113.05,   48.4,   0.94139
"S5X_1000069", 0.208, 1,    112.742,  -71.6,   0.93882, 2,    112.923,  168.5,   0.94033, 3,     113.05,   48.4,   0.94139
"S6X_1000069", 0.208, 1,    112.742,  -71.6,   0.93882, 2,    112.923,  168.5,   0.94033, 3,     113.05,   48.4,   0.94139
"X_1000531", 0.4157, 1,    227.683,  -41.0,   0.94866, 0, 0, 0, 0, 0, 0, 0, 0
"S1X_1000531", 0.4157, 1,    227.429,  -41.0,    0.9476, 0, 0, 0, 0, 0, 0, 0, 0
"S2X_1000531", 0.4157, 1,    227.429,  -41.0,    0.9476, 0, 0, 0, 0, 0, 0, 0, 0
"S3X_1000531", 0.4157, 1,    227.429,  -41.0,    0.9476, 0, 0, 0, 0, 0, 0, 0, 0
"S4X_1000531", 0.4157, 1,    227.429,  -41.0,    0.9476, 0, 0, 0, 0, 0, 0, 0, 0
"S5X_1000531", 0.4157, 1,    227.429,  -41.0,    0.9476, 0, 0, 0, 0, 0, 0, 0, 0
"S6X_1000531", 0.4157, 1,    227.429,  -41.0,    0.9476, 0, 0, 0, 0, 0, 0, 0, 0
"S7X_1000531", 0.4157, 1,    227.429,  -41.0,    0.9476, 0, 0, 0, 0, 0, 0, 0, 0
"S8X_1000531", 0.4157, 1,    227.429,  -41.0,    0.9476, 0, 0, 0, 0, 0, 0, 0, 0
"S9X_1000531", 0.4157, 1,    227.429,  -41.0,    0.9476, 0, 0, 0, 0, 0, 0, 0, 0
"S10X_1000531", 0.4157, 1,    227.429,  -41.0,    0.9476, 0, 0, 0, 0, 0, 0, 0, 0
"S11X_1000531", 0.4157, 1,    227.429,  -41.0,    0.9476, 0, 0, 0, 0, 0, 0, 0, 0
"X_1000533", 0.4157, 1,    227.678,  -41.0,   0.94864, 0, 0, 0, 0, 0, 0, 0, 0
"S1X_1000533", 0.4157, 1,    227.424,  -41.0,   0.94758, 0, 0, 0, 0, 0, 0, 0, 0
"S2X_1000533", 0.4157, 1,    227.424,  -41.0,   0.94758, 0, 0, 0, 0, 0, 0, 0, 0
"S3X_1000533", 0.4157, 1,    227.424,  -41.0,   0.94758, 0, 0, 0, 0, 0, 0, 0, 0
"S4X_1000533", 0.4157, 1,    227.424,  -41.0,   0.94758, 0, 0, 0, 0, 0, 0, 0, 0
"S5X_1000533", 0.4157, 1,    227.424,  -41.0,   0.94758, 0, 0, 0, 0, 0, 0, 0, 0
"S6X_1000533", 0.4157, 1,    227.424,  -41.0,   0.94758, 0, 0, 0, 0, 0, 0, 0, 0
"S7X_1000533", 0.4157, 1,    227.424,  -41.0,   0.94758, 0, 0, 0, 0, 0, 0, 0, 0
"S8X_1000533", 0.4157, 1,    227.424,  -41.0,   0.94758, 0, 0, 0, 0, 0, 0, 0, 0
"S9X_1000533", 0.4157, 1,    227.424,  -41.0,   0.94758, 0, 0, 0, 0, 0, 0, 0, 0
"S10X_1000533", 0.4157, 1,    227.424,  -41.0,   0.94758, 0, 0, 0, 0, 0, 0, 0, 0
"S11X_1000533", 0.4157, 1,    227.424,  -41.0,   0.94758, 0, 0, 0, 0, 0, 0, 0, 0
"X_1000532", 0.4157, 1,    227.575,  -41.1,   0.94821, 0, 0, 0, 0, 0, 0, 0, 0
"S1X_1000532", 0.4157, 1,    227.236,  -41.1,    0.9468, 0, 0, 0, 0, 0, 0, 0, 0
"S2X_1000532", 0.4157, 1,    227.236,  -41.1,    0.9468, 0, 0, 0, 0, 0, 0, 0, 0
"S3X_1000532", 0.4157, 1,    227.236,  -41.1,    0.9468, 0, 0, 0, 0, 0, 0, 0, 0
"S4X_1000532", 0.4157, 1,    227.236,  -41.1,    0.9468, 0, 0, 0, 0, 0, 0, 0, 0
"S5X_1000532", 0.4157, 1,    227.236,  -41.1,    0.9468, 0, 0, 0, 0, 0, 0, 0, 0
"S6X_1000532", 0.4157, 1,    227.236,  -41.1,    0.9468, 0, 0, 0, 0, 0, 0, 0, 0
"S7X_1000532", 0.4157, 1,    227.236,  -41.1,    0.9468, 0, 0, 0, 0, 0, 0, 0, 0
"S8X_1000532", 0.4157, 1,    227.236,  -41.1,    0.9468, 0, 0, 0, 0, 0, 0, 0, 0
"S9X_1000532", 0.4157, 1,    227.236,  -41.1,    0.9468, 0, 0, 0, 0, 0, 0, 0, 0
"S10X_1000532", 0.4157, 1,    227.236,  -41.1,    0.9468, 0, 0, 0, 0, 0, 0, 0, 0
"S11X_1000532", 0.4157, 1,    227.236,  -41.1,    0.9468, 0, 0, 0, 0, 0, 0, 0, 0
"X_1000582", 0.4157, 1,    227.511,  -41.1,   0.94794, 0, 0, 0, 0, 0, 0, 0, 0
"S1X_1000582", 0.4157, 1,    227.244,  -41.1,   0.94683, 0, 0, 0, 0, 0, 0, 0, 0
"S2X_1000582", 0.4157, 1,    227.244,  -41.1,   0.94683, 0, 0, 0, 0, 0, 0, 0, 0
"S3X_1000582", 0.4157, 1,    227.244,  -41.1,   0.94683, 0, 0, 0, 0, 0, 0, 0, 0
"S4X_1000582", 0.4157, 1,    227.244,  -41.1,   0.94683, 0, 0, 0, 0, 0, 0, 0, 0
"S5X_1000582", 0.4157, 1,    227.244,  -41.1,   0.94683, 0, 0, 0, 0, 0, 0, 0, 0
"S6X_1000582", 0.4157, 1,    227.244,  -41.1,   0.94683, 0, 0, 0, 0, 0, 0, 0, 0
"S7X_1000582", 0.4157, 1,    227.244,  -41.1,   0.94683, 0, 0, 0, 0, 0, 0, 0, 0
"X_1000581", 0.4157, 1,    227.501,  -41.1,    0.9479, 0, 0, 0, 0, 0, 0, 0, 0
"S1X_1000581", 0.4157, 1,    227.268,  -41.1,   0.94693, 0, 0, 0, 0, 0, 0, 0, 0
"S2X_1000581", 0.4157, 1,    227.268,  -41.1,   0.94693, 0, 0, 0, 0, 0, 0, 0, 0
"S3X_1000581", 0.4157, 1,    227.268,  -41.1,   0.94693, 0, 0, 0, 0, 0, 0, 0, 0
"S4X_1000581", 0.4157, 1,    227.268,  -41.1,   0.94693, 0, 0, 0, 0, 0, 0, 0, 0
"S5X_1000581", 0.4157, 1,    227.268,  -41.1,   0.94693, 0, 0, 0, 0, 0, 0, 0, 0
"S6X_1000581", 0.4157, 1,    227.268,  -41.1,   0.94693, 0, 0, 0, 0, 0, 0, 0, 0
"S7X_1000581", 0.4157, 1,    227.268,  -41.1,   0.94693, 0, 0, 0, 0, 0, 0, 0, 0
"S8X_1000581", 0.4157, 1,    227.268,  -41.1,   0.94693, 0, 0, 0, 0, 0, 0, 0, 0
"X_1000537", 0.4157, 1,    227.674,  -41.1,   0.94862, 0, 0, 0, 0, 0, 0, 0, 0
"S1X_1000537", 0.4157, 1,    227.459,  -41.0,   0.94773, 0, 0, 0, 0, 0, 0, 0, 0
"S2X_1000537", 0.4157, 1,    227.459,  -41.0,   0.94773, 0, 0, 0, 0, 0, 0, 0, 0
"S3X_1000537", 0.4157, 1,    227.459,  -41.0,   0.94773, 0, 0, 0, 0, 0, 0, 0, 0
"S4X_1000537", 0.4157, 1,    227.459,  -41.0,   0.94773, 0, 0, 0, 0, 0, 0, 0, 0
"S5X_1000537", 0.4157, 1,    227.459,  -41.0,   0.94773, 0, 0, 0, 0, 0, 0, 0, 0
"S6X_1000537", 0.4157, 1,    227.459,  -41.0,   0.94773, 0, 0, 0, 0, 0, 0, 0, 0
"S7X_1000537", 0.4157, 1,    227.459,  -41.0,   0.94773, 0, 0, 0, 0, 0, 0, 0, 0
"S8X_1000537", 0.4157, 1,    227.459,  -41.0,   0.94773, 0, 0, 0, 0, 0, 0, 0, 0
"S9X_1000537", 0.4157, 1,    227.459,  -41.0,   0.94773, 0, 0, 0, 0, 0, 0, 0, 0
"S10X_1000537", 0.4157, 1,    227.459,  -41.0,   0.94773, 0, 0, 0, 0, 0, 0, 0, 0
"S11X_1000537", 0.4157, 1,    227.459,  -41.0,   0.94773, 0, 0, 0, 0, 0, 0, 0, 0
"S12X_1000537", 0.4157, 1,    227.459,  -41.0,   0.94773, 0, 0, 0, 0, 0, 0, 0, 0
"S13X_1000537", 0.4157, 1,    227.459,  -41.0,   0.94773, 0, 0, 0, 0, 0, 0, 0, 0
"X_1000536", 0.4157, 1,    227.578,  -41.1,   0.94822, 0, 0, 0, 0, 0, 0, 0, 0
"S1X_1000536", 0.4157, 1,    227.239,  -41.1,   0.94681, 0, 0, 0, 0, 0, 0, 0, 0
"S2X_1000536", 0.4157, 1,    227.239,  -41.1,   0.94681, 0, 0, 0, 0, 0, 0, 0, 0
"S3X_1000536", 0.4157, 1,    227.239,  -41.1,   0.94681, 0, 0, 0, 0, 0, 0, 0, 0
"S4X_1000536", 0.4157, 1,    227.239,  -41.1,   0.94681, 0, 0, 0, 0, 0, 0, 0, 0
"S5X_1000536", 0.4157, 1,    227.239,  -41.1,   0.94681, 0, 0, 0, 0, 0, 0, 0, 0
"S6X_1000536", 0.4157, 1,    227.239,  -41.1,   0.94681, 0, 0, 0, 0, 0, 0, 0, 0
"S7X_1000536", 0.4157, 1,    227.239,  -41.1,   0.94681, 0, 0, 0, 0, 0, 0, 0, 0
"S8X_1000536", 0.4157, 1,    227.239,  -41.1,   0.94681, 0, 0, 0, 0, 0, 0, 0, 0
"S9X_1000536", 0.4157, 1,    227.239,  -41.1,   0.94681, 0, 0, 0, 0, 0, 0, 0, 0
"S10X_1000536", 0.4157, 1,    227.239,  -41.1,   0.94681, 0, 0, 0, 0, 0, 0, 0, 0
"S11X_1000536", 0.4157, 1,    227.239,  -41.1,   0.94681, 0, 0, 0, 0, 0, 0, 0, 0
"X_1000534", 0.4157, 3,    226.525,   79.2,   0.94384, 0, 0, 0, 0, 0, 0, 0, 0
"S1X_1000534", 0.4157, 3,    226.432,   79.2,   0.94345, 0, 0, 0, 0, 0, 0, 0, 0
"S2X_1000534", 0.4157, 3,    226.432,   79.2,   0.94345, 0, 0, 0, 0, 0, 0, 0, 0
"S3X_1000534", 0.4157, 3,    226.432,   79.2,   0.94345, 0, 0, 0, 0, 0, 0, 0, 0
"S4X_1000534", 0.4157, 3,    226.432,   79.2,   0.94345, 0, 0, 0, 0, 0, 0, 0, 0
"S5X_1000534", 0.4157, 3,    226.432,   79.2,   0.94345, 0, 0, 0, 0, 0, 0, 0, 0
"S6X_1000534", 0.4157, 3,    226.432,   79.2,   0.94345, 0, 0, 0, 0, 0, 0, 0, 0
"S7X_1000534", 0.4157, 3,    226.432,   79.2,   0.94345, 0, 0, 0, 0, 0, 0, 0, 0
"S8X_1000534", 0.4157, 3,    226.432,   79.2,   0.94345, 0, 0, 0, 0, 0, 0, 0, 0
"S9X_1000534", 0.4157, 3,    226.432,   79.2,   0.94345, 0, 0, 0, 0, 0, 0, 0, 0
"S10X_1000534", 0.4157, 3,    226.432,   79.2,   0.94345, 0, 0, 0, 0, 0, 0, 0, 0
"S11X_1000534", 0.4157, 3,    226.432,   79.2,   0.94345, 0, 0, 0, 0, 0, 0, 0, 0
"X_1000535", 0.4157, 3,    226.615,   79.0,   0.94421, 0, 0, 0, 0, 0, 0, 0, 0
"S1X_1000535", 0.4157, 3,    226.241,   79.1,   0.94265, 0, 0, 0, 0, 0, 0, 0, 0
"S2X_1000535", 0.4157, 3,    226.241,   79.1,   0.94265, 0, 0, 0, 0, 0, 0, 0, 0
"S3X_1000535", 0.4157, 3,    226.241,   79.1,   0.94265, 0, 0, 0, 0, 0, 0, 0, 0
"S4X_1000535", 0.4157, 3,    226.241,   79.1,   0.94265, 0, 0, 0, 0, 0, 0, 0, 0
"S5X_1000535", 0.4157, 3,    226.241,   79.1,   0.94265, 0, 0, 0, 0, 0, 0, 0, 0
"S6X_1000535", 0.4157, 3,    226.241,   79.1,   0.94265, 0, 0, 0, 0, 0, 0, 0, 0
"S7X_1000535", 0.4157, 3,    226.241,   79.1,   0.94265, 0, 0, 0, 0, 0, 0, 0, 0
"S8X_1000535", 0.4157, 3,    226.241,   79.1,   0.94265, 0, 0, 0, 0, 0, 0, 0, 0
"S9X_1000535", 0.4157, 3,    226.241,   79.1,   0.94265, 0, 0, 0, 0, 0, 0, 0, 0
"S10X_1000535", 0.4157, 3,    226.241,   79.1,   0.94265, 0, 0, 0, 0, 0, 0, 0, 0
"S11X_1000535", 0.4157, 3,    226.241,   79.1,   0.94265, 0, 0, 0, 0, 0, 0, 0, 0
"X_1000586", 0.4157, 3,    226.471,   79.1,   0.94361, 0, 0, 0, 0, 0, 0, 0, 0
"S1X_1000586", 0.4157, 3,    225.957,   79.1,   0.94147, 0, 0, 0, 0, 0, 0, 0, 0
"S2X_1000586", 0.4157, 3,    225.957,   79.1,   0.94147, 0, 0, 0, 0, 0, 0, 0, 0
"S3X_1000586", 0.4157, 3,    225.957,   79.1,   0.94147, 0, 0, 0, 0, 0, 0, 0, 0
"S4X_1000586", 0.4157, 3,    225.957,   79.1,   0.94147, 0, 0, 0, 0, 0, 0, 0, 0
"X_1000589", 0.4157, 3,    226.596,   79.1,   0.94413, 0, 0, 0, 0, 0, 0, 0, 0
"S1X_1000589", 0.4157, 3,    226.185,   79.1,   0.94242, 0, 0, 0, 0, 0, 0, 0, 0
"S2X_1000589", 0.4157, 3,    226.185,   79.1,   0.94242, 0, 0, 0, 0, 0, 0, 0, 0
"S3X_1000589", 0.4157, 3,    226.185,   79.1,   0.94242, 0, 0, 0, 0, 0, 0, 0, 0
"S4X_1000589", 0.4157, 3,    226.185,   79.1,   0.94242, 0, 0, 0, 0, 0, 0, 0, 0
"S5X_1000589", 0.4157, 3,    226.185,   79.1,   0.94242, 0, 0, 0, 0, 0, 0, 0, 0
"S6X_1000589", 0.4157, 3,    226.185,   79.1,   0.94242, 0, 0, 0, 0, 0, 0, 0, 0
"S7X_1000589", 0.4157, 3,    226.185,   79.1,   0.94242, 0, 0, 0, 0, 0, 0, 0, 0
"S8X_1000589", 0.4157, 3,    226.185,   79.1,   0.94242, 0, 0, 0, 0, 0, 0, 0, 0
"S9X_1000589", 0.4157, 3,    226.185,   79.1,   0.94242, 0, 0, 0, 0, 0, 0, 0, 0
"S10X_1000589", 0.4157, 3,    226.185,   79.1,   0.94242, 0, 0, 0, 0, 0, 0, 0, 0
"X_1000587", 0.4157, 3,    226.706,   79.1,   0.94459, 0, 0, 0, 0, 0, 0, 0, 0
"S1X_1000587", 0.4157, 3,    226.426,   79.2,   0.94343, 0, 0, 0, 0, 0, 0, 0, 0
"S2X_1000587", 0.4157, 3,    226.426,   79.2,   0.94343, 0, 0, 0, 0, 0, 0, 0, 0
"S3X_1000587", 0.4157, 3,    226.426,   79.2,   0.94343, 0, 0, 0, 0, 0, 0, 0, 0
"S4X_1000587", 0.4157, 3,    226.426,   79.2,   0.94343, 0, 0, 0, 0, 0, 0, 0, 0
"S5X_1000587", 0.4157, 3,    226.426,   79.2,   0.94343, 0, 0, 0, 0, 0, 0, 0, 0
"S6X_1000587", 0.4157, 3,    226.426,   79.2,   0.94343, 0, 0, 0, 0, 0, 0, 0, 0
"S7X_1000587", 0.4157, 3,    226.426,   79.2,   0.94343, 0, 0, 0, 0, 0, 0, 0, 0
"S8X_1000587", 0.4157, 3,    226.426,   79.2,   0.94343, 0, 0, 0, 0, 0, 0, 0, 0
"S9X_1000587", 0.4157, 3,    226.426,   79.2,   0.94343, 0, 0, 0, 0, 0, 0, 0, 0
"S10X_1000587", 0.4157, 3,    226.426,   79.2,   0.94343, 0, 0, 0, 0, 0, 0, 0, 0
"S11X_1000587", 0.4157, 3,    226.426,   79.2,   0.94343, 0, 0, 0, 0, 0, 0, 0, 0
"X_1000588", 0.4157, 3,    226.704,   79.1,   0.94458, 0, 0, 0, 0, 0, 0, 0, 0
"S1X_1000588", 0.4157, 3,    226.396,   79.2,    0.9433, 0, 0, 0, 0, 0, 0, 0, 0
"S2X_1000588", 0.4157, 3,    226.396,   79.2,    0.9433, 0, 0, 0, 0, 0, 0, 0, 0
"S3X_1000588", 0.4157, 3,    226.396,   79.2,    0.9433, 0, 0, 0, 0, 0, 0, 0, 0
"S4X_1000588", 0.4157, 3,    226.396,   79.2,    0.9433, 0, 0, 0, 0, 0, 0, 0, 0
"S5X_1000588", 0.4157, 3,    226.396,   79.2,    0.9433, 0, 0, 0, 0, 0, 0, 0, 0
"S6X_1000588", 0.4157, 3,    226.396,   79.2,    0.9433, 0, 0, 0, 0, 0, 0, 0, 0
"S7X_1000588", 0.4157, 3,    226.396,   79.2,    0.9433, 0, 0, 0, 0, 0, 0, 0, 0
"S8X_1000588", 0.4157, 3,    226.396,   79.2,    0.9433, 0, 0, 0, 0, 0, 0, 0, 0
"S9X_1000588", 0.4157, 3,    226.396,   79.2,    0.9433, 0, 0, 0, 0, 0, 0, 0, 0
"S10X_1000588", 0.4157, 3,    226.396,   79.2,    0.9433, 0, 0, 0, 0, 0, 0, 0, 0
"X_1000585", 0.4157, 3,    226.474,   79.1,   0.94362, 0, 0, 0, 0, 0, 0, 0, 0
"S1X_1000585", 0.4157, 3,    226.132,   79.1,    0.9422, 0, 0, 0, 0, 0, 0, 0, 0
"S2X_1000585", 0.4157, 3,    226.132,   79.1,    0.9422, 0, 0, 0, 0, 0, 0, 0, 0
"S3X_1000585", 0.4157, 3,    226.132,   79.1,    0.9422, 0, 0, 0, 0, 0, 0, 0, 0
"S4X_1000585", 0.4157, 3,    226.132,   79.1,    0.9422, 0, 0, 0, 0, 0, 0, 0, 0
"S5X_1000585", 0.4157, 3,    226.132,   79.1,    0.9422, 0, 0, 0, 0, 0, 0, 0, 0
"S6X_1000585", 0.4157, 3,    226.132,   79.1,    0.9422, 0, 0, 0, 0, 0, 0, 0, 0
"X_1000584", 0.4157, 3,    226.563,   79.0,   0.94399, 0, 0, 0, 0, 0, 0, 0, 0
"S1X_1000584", 0.4157, 3,    226.247,   79.1,   0.94268, 0, 0, 0, 0, 0, 0, 0, 0
"S2X_1000584", 0.4157, 3,    226.247,   79.1,   0.94268, 0, 0, 0, 0, 0, 0, 0, 0
"S3X_1000584", 0.4157, 3,    226.247,   79.1,   0.94268, 0, 0, 0, 0, 0, 0, 0, 0
"S4X_1000584", 0.4157, 3,    226.247,   79.1,   0.94268, 0, 0, 0, 0, 0, 0, 0, 0
"S5X_1000584", 0.4157, 3,    226.247,   79.1,   0.94268, 0, 0, 0, 0, 0, 0, 0, 0
"S6X_1000584", 0.4157, 3,    226.247,   79.1,   0.94268, 0, 0, 0, 0, 0, 0, 0, 0
"S7X_1000584", 0.4157, 3,    226.247,   79.1,   0.94268, 0, 0, 0, 0, 0, 0, 0, 0
"S8X_1000584", 0.4157, 3,    226.247,   79.1,   0.94268, 0, 0, 0, 0, 0, 0, 0, 0
...